<?xml version="1.0" encoding="utf-8"?>
<routes xmlns:xsi="http://www.w3.org/2001/XMLSchema-instance" xsi:noNamespaceSchemaLocation="http://sumo.dlr.de/xsd/routes_file.xsd">
	<vType id="pkw" vClass="passenger" speedDev="0.1" length="4.5" minGap="2.0"></vType>
	<vehicle id="34062_34062_352_0" type="pkw" depart="21613.00">
		<route edges="19724186#1 -19724186#2 19724392#0 -97829259 97829256 132610021#0 -132610022#7 -132610022#5 -166131730#2 -166148845#2 -182441350#1 -334492399#1 -166128467 -334482140 334482139 334482137 166128470 -334482138 -205272293 -132408354 202705923 205272294 -338407172#2 -338407172#1 160797930 -129382742#0 -61482903#6 -61482903#5 -61482903#3 -129382750 -296950370#1 -338407173#4 -338407173#0 132530810#0 132530810#4 132530810#6 132530803#0 132530803#1 132530803#2 132531157#0 294411870#0 294411870#1 294411870#2 95555895 132530880 60858520 60858525 60858518#0 60858518#1 135337512#0 42551576#0 238060862#0 238060862#1 238060870 85255399#0 85255399#2 186406939#0 288352281#0 132630769#1 132630769#3 132630768 7848148#1 7848148#2 7848148#4 26452244#1 146236039 159404635#2 -14560326#2 -14560326#1 -14560326#0 61226122#1 146505410 116082045 148058474#0 148058474#1"></route>
	</vehicle>
	<vehicle id="36860_36860_357_0" type="pkw" depart="21643.00">
		<route edges="23352816#0 -23352816#8 -134757745#7 -134757745#1 7029129#0 10526451#0 47276796 328948524 23125366 27939618 27939623 27939623-AddedOffRampEdge 31349086 317336982 318531305 132618440 283080939 283080941 283080937 283080938 283080733 283080732 132539924 132408434 329035702 329035702-AddedOffRampEdge 132408419 132408410#0 205272294 -338407172#2 -338407172#1 160797930 -129382742#0 -61482903#6 -61482903#5 -61482903#3 -129382750 -296950370#1 -338407173#4 -338407173#0 132530810#0 132530810#4 132530810#6 132530803#0 7651840#0 294411869"></route>
	</vehicle>
	<vehicle id="41482_41482_361_0" type="pkw" depart="21645.00">
		<route edges="132540096 -221195985#2 -189233878#2 -132408336#9 -132408336#6 -132408336#5 -132408336#2 -132408336#0 -61482903#5 -61482903#3 -129382750 -296950370#1 -338407173#4 -338407173#0 132530810#0 132530810#4 132530810#6 132530803#0 132530803#1 132530803#2 132530796#0 132530796#3 62139391#4 132630677#0 132630677#6 132630678#0 132630678#3 132630678#5 146236026#1 146236026#2 146236065#2 85255027#0 291431490#1 -291431489 -32233282#1 -32233282#0 -146236070#3 -146236070#2 -146236070#1 146235998#0 146235998#1 146235998#2 146235998#3 146235998#5 146235998#6 146236002#0 -146505401 23945020#1 36138031#0 120302892#0 120302892#2 146236043#0 146236043#1 146236043#2 35954404#0 35954404#1 -30093479#30 -30093479#27 -30093479#21 -30093479#18 -30093479#16 -30093479#14 -30093479#12 -30093479#11 -30093479#2 -146235974#1 45492075 245700294 146235970 245700282 45492448#2 245700260 -35954406#11 -35954406#8 -35954406#6 -35954406#5 -35954406#4 23840374#0 -23840344#3 23840326#3 23840326#4 -28480224#2 28865821#0"></route>
	</vehicle>
	<vehicle id="44145_44145_362_0" type="pkw" depart="21664.00">
		<route edges="28114910#0 -28114910#6 -335522626#1 32038135#0 363389287#0 363389287#3 363389287#7 363389287#8 32038061#1 160413019 283068684#0 132610061 283068687#0 225924654 283068686 19724433#0 -19724467 -19659693#2 -19659693#1 -19659693#0 19724500#1 -316929105#6 19724715#0 -19724650#4 26692357 -182441350#1 -334492399#1 -166128467 -334482140 334482139 334482137 166128470 -334482138 -205272293 -132408354 202705923 205272294 -338407172#2 -338407172#1 -129382751 -61482903#6 -61482903#5 -61482903#3 -129382750 -296950370#1 -338407173#4 -338407173#0 132530810#0 132530810#4 132530810#6 132530803#0 132530803#1 132530830#0 132531100#3 132530717#0"></route>
	</vehicle>
	<vehicle id="40216_40216_360_0" type="pkw" depart="21665.00">
		<route edges="246499543#2 -7570321#2 47007038 94559473#0 132530810#6 132530803#0 132530803#1 132530803#2 132531157#0 294411870#0 294411870#1 294411870#2 95555895 132530880 60858520 60858525 60858518#0 60858518#1 135337512#0 42551576#0 238060862#0 238060862#1 238060865 238060868#0 238060863#0 338209139 219205213 132406532 301084578 301084571 81852045 301084584 301084580 219205215 219205215-AddedOffRampEdge 274976187 44064517#1 22909112 159276058 29157976 295516776 155419935#0 155422547 23684408#0 203090657 295516779 32260365 76128220#0 349777921#0 132653969 132653970#0 -22740714 -135556225 -24024442 24024441#0 24024441#1 326731915 4218818 50844737 220567385 30746501 5552871 8054393 154842213 278328109 8054394 328980682 328980685 253093567 328984619 302370855 302370855-AddedOffRampEdge 302370860 10695210 31661491-AddedOnRampEdge 31661491 219698234 23450701 24560035 23455340 328974183 133419479 161756374 219701146 219701145 165025365 23682206 23682917#0 23682917#1 161756365#0 164825966#0 24442653#0 28561856#0 26991680#0 26991683#0"></route>
	</vehicle>
	<vehicle id="52856_52856_371_0" type="pkw" depart="21671.00">
		<route edges="131383236#0 37131468#0 176886890#0 188639784#1 188639785#0 132530810#0 132530810#4 132530810#6 132530803#0 132530803#1 132530803#2 132531157#0 294411870#0 294411870#1 294411870#2 95555895 132530880 60858520 60858525 60858518#0 60858518#1 135337512#0 42551576#0 238060862#0 238060862#1 238060870 85255399#0 85255399#2 186406939#0 288352281#0 132630769#1 132630769#3 132630768 7848148#1 7848148#2 7848148#4 26452244#1 146236039 159404635#2 159404635#3 159404635#4 159404635#5 290516105#0 146236003 206585415 288192130 8659473#0 26493934#0"></route>
	</vehicle>
	<vehicle id="46243_46243_363_0" type="pkw" depart="21672.00">
		<route edges="132408301 301977728#1 182441349 159359400#1 301977724#1 254618749#0 254618749#2 102826403 102826406 102826405 102826404 129381474#0 23237365#0 129381987#0 -129381982 129381993#1 129381999#1 129381999#2 129382004#2 129382004#3 -129382750 -296950370#1 -338407173#4 -338407173#0 132530810#0 132530810#4 132530810#6 132530803#0 132530803#1 132530803#2 132530796#0 132530796#3 62139391#4 132630677#0 132630677#6 -176362256#1 -132630679 132630753#2 132630691#0"></route>
	</vehicle>
	<vehicle id="41501_41501_361_0" type="pkw" depart="21676.00">
		<route edges="132408333#0 132408424#0 254618749#2 102826403 102826406 102826405 102826404 129381474#0 23237365#0 -129382224#8 129381993#0 129381993#1 129381999#1 129381999#2 129382004#2 129382004#3 -129382750 -296950370#1 -338407173#4 -338407173#0 132530810#0 132530810#4 132530810#6 132530803#0 132530803#1 132530803#2 132531157#0 294411870#0 294411870#1 294411870#2 95555895 132530880 60858520 60858525 60858518#0 60858518#1 135337512#0 42551576#0 238060862#0 238060862#1 238060870 85255399#0 85255399#2 186406939#0 288352281#0 132630769#1 132630769#3 132630768 7848148#1 7848148#2 7848148#4 26452244#1 146236039 159404635#2 -14560326#2 -14560326#1 -14560326#0 61226122#1 146505410 116082045 116081923 41421234#0 41421234#1 41421234#2"></route>
	</vehicle>
	<vehicle id="45983_45983_363_0" type="pkw" depart="21679.00">
		<route edges="132408298 132408312#1 132408316 132408288#3 132408288#5 132408289 301977724#0 301977724#1 254618749#0 254618749#2 102826403 102826406 102826405 102826404 129381474#0 23237365#0 -129382224#8 129381993#0 129381993#1 129381999#1 129381999#2 129382004#2 129382004#3 -129382750 -296950370#1 -338407173#4 -338407173#0 132530810#0 132530810#4 132530810#6 132530803#0 132530803#1 132530803#2 132530796#0"></route>
	</vehicle>
	<vehicle id="50215_50215_368_0" type="pkw" depart="21719.00">
		<route edges="132409800#0 -338407173#4 -338407173#0 132530810#0 132530810#4 132530810#6 132530803#0 132530803#1 132530803#2 132531157#0 294411870#0 7823388"></route>
	</vehicle>
	<vehicle id="48183_48183_365_0" type="pkw" depart="21721.00">
		<route edges="132530717#0 132530803#1 132530830#0 132531100#3 132531100#4 132531100#5 132531103#0 131383236#0 37131468#0 138735056 138735067#0 143542023#1 93797453#0 143542027#0 143542027#1 213207954 331523378#0 331523378#1 331523378#2 36875282#0 157339628 29432728 32903086 154502589#1 150039005#0 9872308#0 150039007#0 150039007#1 150039007#2 9823971#0 9823971#1 9823971#2 9823971#3 9823971#4 51081171#0 51081171#1 51081171#5 115106777#0 37347656 219018758#0 32011636#0 51857159 219098056 32064260#0 32064260#3 32064260#4 32064261#0 -32324543 -149583694 -60966951 -32038056#3 -28198821#4 -28198821#2 -28198821#1 130165205#0 130165207#0 130165207#1 -130165209#1 -241660955#17 -241660955#16 -241660955#13 -241660955#12 -241660955#10 -241660955#9 -241660955#6 -241660955#5 -241660955#3 -200818108#1 -31864804 -32136295#3 23739623#0 23739623#2 23739623#4 23739623#5 23739623#6 23739632 23199141#2 23199141#3 23739634#1 23739634#2 23739634#3 23739636#0"></route>
	</vehicle>
	<vehicle id="45613_45613_363_0" type="pkw" depart="21725.00">
		<route edges="132408361#0 132408361#5 132408359 182441353#0 132408295#0 132408295#3 132408295#4 132408295#5 132408295#7 301977724#0 301977724#1 254618749#0 254618749#2 102826403 102826406 102826405 102826404 129381474#0 23237365#0 129381987#0 -129381982 129381993#1 129381993#2 129381993#3 -61482903#5 -61482903#3 -129382750 -296950370#1 -338407173#4 -338407173#0 132530810#0 132530810#4 132530810#6 132530803#0 132530803#1 132530803#2"></route>
	</vehicle>
	<vehicle id="39258_39258_360_0" type="pkw" depart="21736.00">
		<route edges="27426713#2 35218003#0 162669463#0 162669458#0 162669466#0 145586340#1 203865888#0 27938272 191276695#5 191276695#7 191276695#12 203073659 200936204#0 43459759 132618496 178424456 132622410 132622411 317955117 317923658 294815708 294815712 328957438 132622400 132622452 132622465 132622492 321458903 136410814 317336982 318531305 132618440 283080939 283080941 283080937 283080938 283080733 132540196 283080529 132539920 132635726 158695462 318531314 318531315 132408434 329035702 329035702-AddedOffRampEdge 132408419 132408410#0 205272294 -338407172#2 -338407172#1 160797930 -129382742#0 -61482903#6 -61482903#5 -61482903#3 -129382750 -296950370#1 -338407173#4 -338407173#0 132530810#0 132530810#4 132530810#6 132530803#0 132530803#1"></route>
	</vehicle>
	<vehicle id="47045_47045_364_0" type="pkw" depart="21741.00">
		<route edges="132540210 132540354 132540332 318531314 318531315 132408434 329035702 329035702-AddedOffRampEdge 132408419 132408410#0 205272294 -338407172#2 -338407172#1 -129382751 -61482903#6 -61482903#5 -61482903#3 -129382750 -296950370#1 -338407173#4 -338407173#0 132530810#0 132530810#4 132530810#6 132530803#0 132530803#1 132530803#2 132530796#0 132530796#3 62139391#4 132630677#0 132630677#6 132630678#0 132630678#3 132630678#5 146236026#1 146236026#2 146236065#2 85255027#0 291431490#1 -291431489 -32233282#1 -32233282#0 -146236070#3 -146236070#2 -146236070#1 146235998#0 146235998#1 10358660#1 10358616#0 34495250 23945006 146236119#0 305426557 146236120 305426558 334680947"></route>
	</vehicle>
	<vehicle id="36324_36324_356_0" type="pkw" depart="21745.00">
		<route edges="256050159#4 -256050159#4 -256050159#3 -132648179#3 -132648179#2 -132648179#1 -132648163#9 -132648163#2 -132643002#15 -132643002#12 -132643002#9 -27379509#3 -27379509#0 27379333#3 27379333#4 132643025#0 132643025#1 132643025#2 183912286#0 183912286#1 361975450#0 361975450#1 361975450#2 361975450#3 361975450#5 361975450#6 361975450#8 361975450#10 23621539#0 23621539#1 249467317#0 249467317#1 132642968#0 132642968#3 132642968#5 183912284#0 183912284#1 132642971#0 132642971#10 180303014#0 180303014#2 180303014#4 180303014#5 321388523#0 321388522#0 -331328087#1 321388526#0 321388520#0 361183630#0 361183629#0 23016721#0 182284996#0 132622444#3 132622444#4 132622443#0 192545094#0 192545094#1 331413303#0 26259069#0 363240467#0 -25298909#5 -25298909#2 -25298909#1 -25298909#0 25298923#0 25298923#1 -182284995#3 -182284995#1 -132622431#5 -132622431#3 59469236#0 -132618560 132618561#0 132618561#1 132618612 276195722 329143677 283080937 283080938 283080733 283080732 132539924 132408434 329035702 329035702-AddedOffRampEdge 132408419 132408410#0 205272294 -338407172#2 -338407172#1 -129382751 -61482903#6 -61482903#5 -61482903#3 -129382750 -296950370#1 -338407173#4 -338407173#0 132530810#0 132530810#4 132530810#6 132530803#0 132530803#1 132530803#2 132531157#0 294411870#0 294411870#1 294411870#2"></route>
	</vehicle>
	<vehicle id="54996_54996_372_0" type="pkw" depart="21754.00">
		<route edges="132540173#1 132540046 -45378376#2 -132540162#1 -33431432#3 -33431432#1 -33431432#0 -33434245#1 -42551572#2 -42551572#1 -42551572#0 -352041950 -132409810 -352041948 -160207496 -188639781#10 -188639781#6 -188639781#5 -188639781#4 -188639781#2 -188639781#1 131383238#0 132530810#0 132530810#4 132530810#6 132530803#0 132530803#1 132530803#2 132531152#0"></route>
	</vehicle>
	<vehicle id="49807_49807_367_0" type="pkw" depart="21756.00">
		<route edges="132409799#0 -132409799#2 -338407173#4 -338407173#0 132530810#0 132530810#4 132530810#6 132530803#0 132530803#1 132530803#2 132530796#0 132530796#3 62139391#4 132630677#0 132630677#6 132630678#0 132630678#3 132630678#5 146236026#1 146236025#0 85255023#4 7848148#1 7848148#2 7848148#4 289862865#0 289862865#1 -23945293#1 29876660"></route>
	</vehicle>
	<vehicle id="46890_46890_364_0" type="pkw" depart="21766.00">
		<route edges="132531100#3 132530717#0 132530803#1 132530803#2 132530796#0 132530796#3 62139391#4 132630677#0 132630677#6 132630678#0 132630678#3 132630678#5 146236026#1 146236026#2 146236065#2 85255027#0 291431490#1 -291431489 -32233282#1 -32233282#0 -146236070#3 -146236070#2 41678295#0 146236125#0 -146235959#0 146235959#0"></route>
	</vehicle>
	<vehicle id="53734_53734_371_0" type="pkw" depart="21766.00">
		<route edges="129382004#2 129382004#3 -129382750 -296950370#1 -338407173#4 -338407173#0 132530810#0 132530810#4 132530810#6 132530803#0 132530803#1 132530803#2 132531157#0 294411870#0 294411870#1 294411870#2 95555895 132530880 60858520 60858515 135337514 60858517 60858526 301084497 301084487 132545199 301084454 208913387 208913388 219188458 315649555 132530906 258503937 132624380 208913377 315649557 206716755 206716768 242756121#0 -254177412 254177419 315140144#0 209682818#0 26803248 26803015#0 209682828 209682829#0 -161800834 -26657746#7 29180985#0"></route>
	</vehicle>
	<vehicle id="51003_51003_369_0" type="pkw" depart="21787.00">
		<route edges="129382741#0 -129382741#2 -129382750 -296950370#1 -338407173#4 -338407173#0 132530810#0 132530810#4 132530810#6 132530803#0 132530803#1 132530803#2 132531157#0 294411870#0 294411870#1 294411870#2 95555895 132530880 60858520 60858515 135337514 60858517 60858526 301084497 301084487 132545199 301084454 208913387 208913388 219188458 315649555 132530906 258503937 132624380 208913377 315649557 206716755 206716768 242756121#0 -254177412 254177419 315140144#0 209682818#0 26803248 26803015#0"></route>
	</vehicle>
	<vehicle id="42763_42763_361_0" type="pkw" depart="21792.00">
		<route edges="26670056#0 -26670056#1 -26670047 256050159#0 256050159#1 -132648179#3 -132648179#2 -132648179#1 -132648163#9 -132648163#2 -132643002#15 -132643002#12 -132643002#9 -27379509#3 -27379509#0 27379333#3 27379333#4 132643025#0 132643025#1 132643025#2 183912286#0 183912286#1 361975450#0 361975450#1 361975450#2 361975450#3 361975450#5 361975450#6 361975450#8 361975450#10 23621539#0 23621539#1 249467317#0 249467317#1 132642968#0 132642968#3 132642968#5 183912284#0 183912284#1 132642971#0 132642971#10 180303014#0 180303014#2 180303014#4 180303014#5 321388523#0 321388522#0 -331328087#1 321388526#0 321388520#0 361183630#0 361183629#0 23016721#0 182284996#0 132622444#3 132622444#4 132622443#0 192545094#0 192545094#1 331413303#0 26259069#0 363240467#0 -25298909#5 -25298909#2 -25298909#1 -25298909#0 25298923#0 25298923#1 -182284995#3 -182284995#1 -132622431#5 -132622431#3 59469236#0 -132618560 132618561#0 132618561#1 132618612 276195722 329143677 283080937 283080938 283080733 283080732 132539924 132408434 329035702 329035702-AddedOffRampEdge 132408419 132408410#0 205272294 -338407172#2 -338407172#1 160797930 -129382742#0 -61482903#6 -61482903#5 -61482903#3 -129382750 -296950370#1 -338407173#4 -338407173#0 132530810#0 132530810#4 132530810#6 132530803#0 132530803#1 132530803#2 132531152#0 132531152#4"></route>
	</vehicle>
	<vehicle id="49089_49089_366_0" type="pkw" depart="21812.00">
		<route edges="296950370#0 -296950370#1 -338407173#4 -338407173#0 132530810#0 132530810#4 132530810#6 132530803#0 132530803#1 132530803#2 132530796#0 132530796#3 62139391#4 132630677#0 132630677#6 132630678#0 132630678#3 132630678#5 146236026#1 146236026#2 146236065#2 85255027#0 291431490#1 -291431489 -32233282#1 -32233282#0 -146236070#3 -146236070#2 -146236070#1 146235998#0 146235998#1 146235998#2 146235998#3 146235998#5 146235998#6 146236002#0 -146505401 23945020#1 36138031#0 120302892#0 120302892#2 146236043#0 146236043#1 146236043#2 35954404#0 35954404#1 -30093479#30 -30093479#27 -30093479#21 -30093479#18 -30093479#16 -30093479#14 -30093479#12 -30093479#11 -30093479#2 -146235974#1 45492075 245700294"></route>
	</vehicle>
	<vehicle id="54032_54032_371_0" type="pkw" depart="21817.00">
		<route edges="23613303#0 132610021#0 -132610022#7 -132610022#5 -166131730#2 -166148845#2 -182441350#1 -334492399#1 -166128467 -334482140 334482139 334482137 166128470 -334482138 -205272293 -132408354 202705923 205272294 -338407172#2 -338407172#1 160797930 -129382742#0 -61482903#6 -61482903#5 -61482903#3 -129382750 -296950370#1 -338407173#4 -338407173#0 132530810#0 132530810#4 132530810#6 132530803#0 132530803#1 132530803#2 132530796#0 132530796#3 62139391#4 132630677#0 132630677#6 132630678#0 132630678#3 132630678#5 146236026#1 146236026#2 146236065#2 85255027#0 291431490#1 -291431489 -32233282#1 146236056 146236052#2 -28817512#3 -146236070#3 -146236070#2 -146236070#1 146235998#0 146235998#1 146235998#2 146235998#3 146235998#5 146235998#6 146236002#0 -146505401 23945020#1 36138031#0 120302892#0 120302892#2 146236043#0 146236043#1 146236043#2 35954404#0 35954404#1 -30093479#30 -30093479#27 -30093479#21 -30093479#18 -30093479#16 -30093479#14 -30093479#12 -30093479#11 -30093479#2 -146235974#1 45492075 245700294 147053202#0 -30284538#10 30284547"></route>
	</vehicle>
	<vehicle id="55059_55059_372_0" type="pkw" depart="21850.00">
		<route edges="132545223 -132614554#5 132614547#1 132614547#2 -132545224#1 132540165#0 132540165#2 150960212#0 -28351795#16 -28351795#12 -28351795#10 -28351795#3 -28351795#1 100820563 8033655 132409801#0 132409801#3 132409801#7 296950371#0 132409826#1 132409826#2 132409800#0 -338407173#4 -338407173#0 132530810#0 132530810#4 132530810#6 132530803#0 132530803#1 132530803#2 132531152#0 132531152#4 132531152#5 132531155#0"></route>
	</vehicle>
	<vehicle id="49685_49685_367_0" type="pkw" depart="21858.00">
		<route edges="200936202#0 -183486609 36253967#0 -6077304#4 -134207470#5 -134207469#1 -27456348#4 7029129#0 10526451#0 47276796 328948524 23125366 27939618 27939623 27939623-AddedOffRampEdge 31349086 317336982 318531305 132618440 283080939 283080941 283080937 283080938 283080733 132540196 283080529 132539920 132635726 158695462 318531314 318531315 132408434 329035702 329035702-AddedOffRampEdge 132408419 132408410#0 205272294 -338407172#2 -338407172#1 -129382751 -61482903#6 -61482903#5 -61482903#3 -129382750 -296950370#1 -338407173#4 -338407173#0 132530810#0 132530810#4 132530810#6 132530803#0 132530803#1 132530803#2 132531152#0"></route>
	</vehicle>
	<vehicle id="56394_56394_373_0" type="pkw" depart="21888.00">
		<route edges="361975450#5 361975450#6 361975450#8 361975450#10 23621539#0 23621539#1 249467317#0 249467317#1 132642968#0 132642968#3 132642968#5 183912284#0 183912284#1 132642971#0 132642971#10 180303014#0 180303014#2 180303014#4 180303014#5 321388523#0 321388523#1 321388521 200883258 321388520#0 361183630#0 361183629#0 23016721#0 182284996#0 132622444#3 132622444#4 132622443#0 192545094#0 192545094#1 117644047#0 -363240510#1 26259069#0 363240467#0 -25298909#5 -25298909#2 -25298909#1 -25298909#0 25298923#0 25298923#1 -182284995#3 -182284995#1 -132622431#5 -132622431#3 59469236#0 -132618560 132618561#0 132618561#1 132618612 276195722 329143677 283080937 283080938 283080733 132540196 283080529 132539920 132635726 158695462 318531314 318531315 132408434 329035702 329035702-AddedOffRampEdge 132408419 132408410#0 205272294 -338407172#2 -338407172#1 -129382751 -61482903#6 -61482903#5 -61482903#3 -129382750 -296950370#1 -338407173#4 -338407173#0 132530810#0 132530810#4 132530810#6 132530803#0 132530803#1 132530803#2 132530796#0"></route>
	</vehicle>
	<vehicle id="55381_55381_372_0" type="pkw" depart="21894.00">
		<route edges="135556214 -338482799#0 -24337220#4 -24337220#3 -24337220#2 -24337220#1 8091270#4 99714977#0 99714977#3 99714977#4 196122462#0 27892605#0 256228045#0 7796746#0 8091272#0 256226573 328974185 256226574#0 8088129-AddedOnRampEdge 8088129 325727262 325727261 208036879 325727272 145024227 103884459#0 19975730 285867301#1-AddedOnRampEdge 285867301#1 133858895 325731358 325731358-AddedOffRampEdge 20640857#1 133859049-AddedOnRampEdge 133859049 133859049-AddedOffRampEdge 4008412#1 133859050-AddedOnRampEdge 133859050 235824472 145128808 235824471 235824469 133859192 4008414 283068677 283068675 283068676 283068674 283080515 283080504 238865723 283080498 75503635 283076461 132539932 283080529 132539920 132635726 158695462 318531314 318531315 132408434 329035702 329035702-AddedOffRampEdge 132408419 132408410#0 205272294 -338407172#2 -338407172#1 160797930 -129382742#0 -61482903#6 -61482903#5 -61482903#3 -129382750 -296950370#1 -338407173#4 -338407173#0 132530810#0 132530810#4 132530810#6 132530803#0 7651840#0 7651883 7651811 -132530839#2 7821901#0 7821901#1 7821911#0 7821911#1 7290755#1 7822748#0"></route>
	</vehicle>
	<vehicle id="46496_46496_363_0" type="pkw" depart="21905.00">
		<route edges="100820563 8033655 132409801#0 132409801#3 132409801#7 296950371#0 132409826#1 132409826#2 132409800#0 -338407173#4 -338407173#0 132530810#0 132530810#4 132530810#6 132530803#0 132530803#1 132530803#2 132531157#0 294411870#0 294411870#1 294411870#2 95555895 132530880 60858520 60858525 60858518#0 60858518#1 135337512#0 42551576#0 238060862#0 238060862#1 238060870 85255399#0 85255399#2 186406939#0 288352281#0 132630769#1 132630769#3 132630768 146236065#0 146236065#2 85255027#0 85255027#3 200446357 37746276#0 291431908#0 37746277#0 32061019 291431909#0 206154376#0 26493934#0 185283373#0 30582563#0 185283377#0 23823387#0"></route>
	</vehicle>
	<vehicle id="49032_49032_366_0" type="pkw" depart="21914.00">
		<route edges="132530867#0 132531100#5 132531109#0 132530810#4 132530810#6 132530803#0 132530803#1 132530803#2 132531157#0 294411870#0 294411870#1 294411870#2 95555895 132530880 60858520 60858525 60858518#0 60858518#1 135337512#0 42551576#0 238060862#0 238060862#1 238060870 85255399#0 85255399#2 186406939#0 288352281#0 132630769#1 132630769#3 132630768 7848148#1 7848148#2 7848148#4 26452244#1 146236039 159404635#2 159404635#3 159404635#4 159404635#5 290516105#0 146236003 206585415"></route>
	</vehicle>
	<vehicle id="42730_42730_361_0" type="pkw" depart="21936.00">
		<route edges="132530810#6 132530803#0 132530803#1 132530803#2 132531157#0 294411870#0 294411870#1 294411870#2 95555895 132530880 60858520 60858515 135337514 60858517 60858526 301084497 301084487 132545199 301084454 208913387 208913388 219188458 315649555 132530906 258503937 202731874 202727688 132624381 208913378 26164974 258495160 258495162 258495162-AddedOffRampEdge 132614514 29254319 318531309 318531313 22673871 4013059 316935434#0 283081629 283081629-AddedOffRampEdge 283081630 31349090 283093851 283095930 7869672 315516300#0 160095816 27456349#0 27456349#6 27456349#15 132705052#0 183522693#0 26206579#0"></route>
	</vehicle>
	<vehicle id="57295_57295_374_0" type="pkw" depart="21938.00">
		<route edges="7549112#0 -7570321#2 47007038 94559473#0 132530810#6 132530803#0 132530803#1 132530803#2 132530796#0 132530796#3 62139391#4 132630677#0 132630677#6 132630678#0 132630678#3 132630678#5 146236026#1 146236026#2 146236065#2 85255027#0 291431490#1 -291431489 -32233282#1 -32233282#0 -146236070#3 -146236070#2 -146236070#1 146235998#0 146235998#1 146235998#2 146235998#3 146235998#5 146235998#6 146236002#0 -146505401 23945020#1 36138031#0 120302892#0 120302892#2 146236043#0 146236043#1 146236043#2 35954404#0 35954404#1 -30093479#30 -30093479#27 -30093479#21 -30093479#18 -30093479#16 -30093479#14 -30093479#12 -30093479#11 -30093479#2 -146235974#1 9519690 245703238#0"></route>
	</vehicle>
	<vehicle id="38880_38880_359_0" type="pkw" depart="21939.00">
		<route edges="7549112#0 -7570321#2 47007038 94559473#0 132530810#6 132530803#0 132530803#1 132530803#2 132531157#0 294411870#0 294411870#1 294411870#2 95555895 132530880 60858520 60858525 60858518#0 60858518#1 135337512#0 42551576#0 238060862#0 238060862#1 238060865 238060868#0 238060863#0 338209139 219205213 132406532 301084578 301084571 81852045 301084584 301084580 219205215 219205215-AddedOffRampEdge 155328302 274976185 25478930 25478916#0 111465051#0 171952943#0 161704958#0 28270415 -28270417 -28270416#0 -28270413 203766008#0 203766007 161704952#6 27488733 67297868 25761189#0 -25761189#0"></route>
	</vehicle>
	<vehicle id="51188_51188_369_0" type="pkw" depart="21943.00">
		<route edges="132530803#0 132530803#1 132530803#2 132531157#0 294411870#0 294411870#1 294411870#2 95555895 132530880 60858520 60858525 60858518#0 60858518#1 135337512#0 42551576#0 238060862#0 238060862#1 238060870 85255399#0 85255399#2 186406939#0 288352281#0 132630769#1 132630769#3 132630768 7848148#1 7848148#2 7848148#4 26452244#1 146236039 159404635#2 159404635#3 159404635#4 159404635#5 290516105#0 146236003 206585415"></route>
	</vehicle>
	<vehicle id="37214_37214_357_0" type="pkw" depart="21954.00">
		<route edges="148711009 -148711009 -201659453#6 -201659453#5 -32038321#10 -32038321#8 -32038321#6 -32038321#5 -32038321#2 -32038321#0 160975714#5 361209265#0 361209268#0 361209267#0 363389287#8 137206721#0 193118430#0 160413019 283068684#0 132610061 283068687#0 225924654 283068686 19724433#0 -19724467 -19659693#2 -19659693#1 -19659693#0 19724500#1 -316929105#6 19724715#0 -19724650#4 26692357 -182441350#1 -334492399#1 -166128467 -334482140 334482139 334482137 166128470 -334482138 -205272293 -132408354 202705923 205272294 -338407172#2 -338407172#1 -129382751 -61482903#6 -61482903#5 -61482903#3 -129382750 -296950370#1 -338407173#4 -338407173#0 132530810#0 132530810#4 132530810#6 132530803#0 7651840#0 7651883 7651811 -132530839#2 7821901#0 7822048 -7822048"></route>
	</vehicle>
	<vehicle id="47922_47922_365_0" type="pkw" depart="21964.00">
		<route edges="-69403483#0 145706016#0 145706016#1 69403527 135926817#0 220356548#0 220356548#1 69403454 69403437#1 69403435#1 69403451 -26658476#0 57039727#0 220351815#0 164211351#0 -29549652 -148324137#13 -148324137#10 -264791811 -132545224#5 -132545224#3 -132545224#1 132540165#0 132540165#2 150960212#0 -28351795#16 -28351795#12 -28351795#10 -28351795#3 -28351795#1 100820563 8033655 132409801#0 132409801#3 132409801#7 296950371#0 132409826#1 132409826#2 132409800#0 -338407173#4 -338407173#0 132530810#0 132530810#4 132530810#6 132530803#0 132530803#1"></route>
	</vehicle>
	<vehicle id="57758_57758_374_0" type="pkw" depart="21968.00">
		<route edges="149760007 150019721#2 -150019652#1 -150019652#0 16661909#2 16661909#3 150039445 -254620132 -235839983#6 -235839983#4 -235839983#1 -230030905 -230030948 -235840008 -235840005 -235840009#1 -235840009#0 -235840010 -202650119 154520794 235839989#0 267388712 227833724 204177813#0 154520784#0 4229595 202527579 -202527579 4229596#0 204177812#0 4400142#0 235824476#0 4400137 25875643 235824485 4400132 235824487 47335015 235824471 235824469 133859192 4008414 283068677 283068675 283068676 283068674 283080515 283080504 238865723 283080498 75503635 283076461 132539932 283080529 132539920 132635726 158695462 318531314 318531315 132408434 329035702 329035702-AddedOffRampEdge 132408419 132408410#0 205272294 -338407172#2 -338407172#1 160797930 -129382742#0 -61482903#6 -61482903#5 -61482903#3 -129382750 -296950370#1 -338407173#4 -338407173#0 132530810#0 132530810#4 132530810#6 132530803#0 132530803#1 132530803#2 132530796#0"></route>
	</vehicle>
	<vehicle id="56280_56280_373_0" type="pkw" depart="21971.00">
		<route edges="132531100#3 132530717#0 132530803#1 132530803#2 132531157#0 294411870#0 294411870#1 294411870#2 95555895 132530880 60858520 60858525 60858518#0 60858518#1 135337512#0 42551576#0 238060862#0 238060862#1 238060865 238060868#0 238060863#0 338209139 219205213 132406532 301084578 301084571 81852045 301084584 301084580 219205215 219205215-AddedOffRampEdge 274976187 44064517#1 22909112 159276058 29157976 295516776 295516783 203090656 157157762 203090657 295516779 32260365 76128220#0 349777921#0 132653969 132653970#0 -22740714 -135556225 -24024442 24024441#0 24024441#1 326731915 4218818 50844737 220567385 30746501 5552871 8054393 154842213 278328109 8054394 328980682 328980685 253093567 328984619 302370855 302370855-AddedOffRampEdge 155444200 49210512 302370858 219698231 5367061 4097371 219698230#1 223048394 60328187#1-AddedOnRampEdge 60328187#1 26261427 318226704 7854062 318226736 318226728 128326635#0 25185615 352049071 318226755#0 82445966 38760070 318226749#0 282514237 -27460594 27460594 7854036#0"></route>
	</vehicle>
	<vehicle id="54806_54806_372_0" type="pkw" depart="21974.00">
		<route edges="133452835 -133452835 -133606484#0 -28100573#1 -133488966#7 -88853769#2 -23352816#11 -23352816#8 -134757745#7 -134757745#1 7029129#0 10526451#0 47276796 328948524 23125366 27939618 27939623 27939623-AddedOffRampEdge 31349086 317336982 318531305 132618440 283080939 283080941 283080937 283080938 283080733 283080732 132539924 132408434 329035702 329035702-AddedOffRampEdge 132408419 132408410#0 205272294 -338407172#2 -338407172#1 -129382751 -61482903#6 -61482903#5 -61482903#3 -129382750 -296950370#1 -338407173#4 -338407173#0 132530810#0 132530810#4 132530810#6 132530803#0 132530803#1 132530830#0 132531100#3 132531100#4"></route>
	</vehicle>
	<vehicle id="38755_38755_359_0" type="pkw" depart="21975.00">